LTspice 24.1.9 for Windows
Circuit: C:\Users\User\Documents\Docs\Tese_RF\Sims\Matchings.net
Start Time: Wed Jun 24 01:01:08 2026
solver = Normal
Maximum thread count: 16
tnom = 27
temp = 27
method = trap
Singular matrix:  Check nodes t4#i2 and t4#int2
   Iteration No. 1
Direct Newton iteration failed to find .op point.  (Use ".option noopiter" to skip.)
Starting Gmin stepping
Gmin = 10
Gmin = 1.07374
Gmin = 0.115292
Gmin = 0.0123794
Gmin = 0.00132923
Gmin = 0.000142725
Gmin = 1.5325e-05
Gmin = 1.6455e-06
Gmin = 1.76685e-07
Gmin = 1.89714e-08
Gmin = 2.03704e-09
Gmin = 2.18725e-10
Gmin = 2.34854e-11
Gmin = 2.52173e-12
Gmin = 2.70769e-13
Singular matrix:  Check nodes t4#i2 and t4#int2
   Iteration No. 2
Gmin = 0
Singular matrix:  Check nodes t4#i2 and t4#int2
   Iteration No. 1
Gmin stepping failed

Starting source stepping with srcstepmethod=0
Singular matrix:  Check nodes t4#i2 and t4#int2
   Iteration No. 1
Singular matrix:  Check nodes t4#i2 and t4#int2
   Iteration No. 2
Could not converge to DC with sources off!
Starting source stepping with srcstepmethod=1
Singular matrix:  Check nodes t4#i2 and t4#int2
   Iteration No. 1
Singular matrix:  Check nodes t4#i2 and t4#int2
   Iteration No. 2
Could not converge to DC with sources off!
Pseudo Transient succeeded in finding the operating point at 327.68 ms.
Total elapsed time: 0.231 seconds.

Files loaded:
C:\Users\User\Documents\Docs\Tese_RF\Sims\Matchings.net

